PDEW2015 11 11  1 54 47.80 -29.5000  -72.0200  10.0 0.0 6.9 OFF COAST OF CENTRAL CHI                
event name:     20151111
time shift:     0.000
half duration:   3.0
latitude:      0.000
longitude:     0.000
depth:          35.0000
Mrr:     1.e+25
Mtt:     1.e+25
Mpp:     1.e+25
Mrt:     0.0
Mrp:     0.0
Mtp:     0.0
